6
Lattice="12.178192 0.0 0.0 0.0 11.886369 0.0 0.0 0.0 13.116966" Properties=species:S:1:pos:R:3:Z:I:1 pbc="T T T"
C       6.08909600       5.62879000       5.46087500        6 
C       6.08909600       5.62879000       6.93805500        6 
F       6.08909600       6.88636900       5.00000000        9 
F       7.17819200       5.00000000       5.00000000        9 
F       5.00000000       5.00000000       5.00000000        9 
N       6.08909600       5.62879000       8.11696600        7 
