4
Lattice="10.0 0.0 0.0 0.0 12.13898 0.0 0.0 0.0 11.970263" Properties=species:S:1:pos:R:3:Z:I:1 pbc="T T T"
O       5.00000000       6.06949000       6.97026300        8 
C       5.00000000       6.06949000       5.78390600        6 
F       5.00000000       7.13898000       5.00000000        9 
F       5.00000000       5.00000000       5.00000000        9 
